####################################################################### 
# 
# This file contains crystal structure data downloaded from the 
# Cambridge Structural Database (CSD) hosted by the Cambridge 
# Crystallographic Data Centre (CCDC) in cooperation with FIZ Karlsruhe.
# 
# Please note that these data are only for research purposes or private use.
# For detailed information please see under Terms & Conditions.
# Full information about CCDC and FIZ Karlsruhe data access policies and 
# citation guidelines are available at http://www.ccdc.cam.ac.uk/access/V1
# 
# Audit and citation data items may have been added by FIZ Karlsruhe. 
# Please retain this information to preserve the provenance of 
# this file and to allow appropriate attribution of the data. 
# 
#######################################################################
@<TRIPOS>MOLECULE

    25    38     1     0     0
SMALL
NO_CHARGES
****
Generated from the CSD

@<TRIPOS>ATOM
     1 Y1       0.0000   2.1535   1.8274   Y         1 RES1   0.0000
     2 O1       0.0000   2.1535   4.0824   O.3       1 RES1   0.0000
     3 S1       0.0000   0.0000   0.0000   S.3       1 RES1   0.0000
     4 Y1       0.0000  -2.1535  -1.8274   Y         1 RES1   0.0000
     5 O1       0.0000  -2.1535  -4.0824   O.3       1 RES1   0.0000
     6 Y1      -1.8650   1.0768  -1.8274   Y         1 RES1   0.0000
     7 Y1      -1.8650   1.0768   4.6526   Y         1 RES1   0.0000
     8 Y1       1.8650   1.0768  -1.8274   Y         1 RES1   0.0000
     9 Y1       1.8650   1.0768   4.6526   Y         1 RES1   0.0000
    10 Y1       0.0000   4.3070   4.6526   Y         1 RES1   0.0000
    11 Y1       0.0000  -4.3070  -4.6526   Y         1 RES1   0.0000
    12 Y1      -1.8650  -1.0768  -4.6526   Y         1 RES1   0.0000
    13 Y1      -1.8650  -1.0768   1.8274   Y         1 RES1   0.0000
    14 Y1       1.8650  -1.0768  -4.6526   Y         1 RES1   0.0000
    15 Y1       1.8650  -1.0768   1.8274   Y         1 RES1   0.0000
    16 O1      -1.8650   1.0768   2.3976   O.3       1 RES1   0.0000
    17 O1       1.8650   1.0768   2.3976   O.3       1 RES1   0.0000
    18 O1       0.0000   4.3070   2.3976   O.3       1 RES1   0.0000
    19 O1       0.0000  -4.3070  -2.3976   O.3       1 RES1   0.0000
    20 O1      -1.8650  -1.0768  -2.3976   O.3       1 RES1   0.0000
    21 O1       1.8650  -1.0768  -2.3976   O.3       1 RES1   0.0000
    22 S1      -1.8650  -3.2303   0.0000   S.3       1 RES1   0.0000
    23 S1       1.8650  -3.2303   0.0000   S.3       1 RES1   0.0000
    24 S1      -1.8650   3.2303   0.0000   S.3       1 RES1   0.0000
    25 S1       1.8650   3.2303   0.0000   S.3       1 RES1   0.0000
@<TRIPOS>BOND
     1     1     2    1
     2     1     3    1
     3     1    16    1
     4     1    17    1
     5     1    18    1
     6     1    24    1
     7     1    25    1
     8     2     7    1
     9     2     9    1
    10     2    10    1
    11     3     4    1
    12     3     6    1
    13     3     8    1
    14     3    13    1
    15     3    15    1
    16     4     5    1
    17     4    19    1
    18     4    20    1
    19     4    21    1
    20     4    22    1
    21     4    23    1
    22     5    11    1
    23     5    12    1
    24     5    14    1
    25     6    20    1
    26     6    24    1
    27     7    16    1
    28     8    21    1
    29     8    25    1
    30     9    17    1
    31    10    18    1
    32    11    19    1
    33    12    20    1
    34    13    16    1
    35    13    22    1
    36    14    21    1
    37    15    17    1
    38    15    23    1
@<TRIPOS>SUBSTRUCTURE
     1 RES1        1 GROUP             0 ****  ****    0  
@<TRIPOS>CRYSIN
    3.7300    3.7300    6.4800   90.0000   90.0000  120.0000   164     1
